#---------------------------------------------------------------------------
#  CTI File converted from Solution Object
#---------------------------------------------------------------------------

units(length = "cm", time = "s", quantity = "mol", act_energy = "cal/mol")

ideal_gas(name = "gas", 
     elements = "H O N Ar He C", 
     species =""" H H2 O OH H2O O2 HO2 H2O2 N2 AR HE CO CO2 """, 
     reactions = "all", 
     initial_state = state(temperature = 300.0, pressure= 101324.99999999999)   )       

#---------------------------------------------------------------------------
#  Species data
#---------------------------------------------------------------------------

species(name = "H",
    atoms = "H:1", 
    thermo = (
       NASA(   [300.0, 1000.0], [2.500000000e+00, 0.000000000e+00,
                0.000000000e+00, 0.000000000e+00,
                0.000000000e+00, 2.547163000e+04,
                -4.601176000e-01]  ),
       NASA(   [1000.0, 5000.0], [2.500000000e+00, 0.000000000e+00,
                0.000000000e+00, 0.000000000e+00,
                0.000000000e+00, 2.547163000e+04,
                -4.601176000e-01]  )
               ),
        )

species(name = "H2",
    atoms = "H:2", 
    thermo = (
       NASA(   [300.0, 1000.0], [3.298124000e+00, 8.249442000e-04,
                -8.143015000e-07,
                -9.475434000e-11, 4.134872000e-13,
                -1.012521000e+03,
                -3.294094000e+00]  ),
       NASA(   [1000.0, 5000.0], [2.991423000e+00, 7.000644000e-04,
                -5.633829000e-08,
                -9.231578000e-12, 1.582752000e-15,
                -8.350340000e+02,
                -1.355110000e+00]  )
               ),
        )

species(name = "O",
    atoms = "O:1", 
    thermo = (
       NASA(   [300.0, 1000.0], [2.946429000e+00, -1.638166000e-03,
                2.421032000e-06, -1.602843000e-09,
                3.890696000e-13, 2.914764000e+04,
                2.963995000e+00]  ),
       NASA(   [1000.0, 5000.0], [2.542060000e+00, -2.755062000e-05,
                -3.102803000e-09, 4.551067000e-12,
                -4.368052000e-16, 2.923080000e+04,
                4.920308000e+00]  )
               ),
        )

species(name = "OH",
    atoms = "H:1 O:1", 
    thermo = (
       NASA(   [200.0, 1000.0], [4.125305610e+00, -3.225449390e-03,
                6.527646910e-06, -5.798536430e-09,
                2.062373790e-12, 3.346309130e+03,
                -6.904329600e-01]  ),
       NASA(   [1000.0, 6000.0], [2.864728860e+00, 1.056504480e-03,
                -2.590827580e-07, 3.052186740e-11,
                -1.331958760e-15, 3.683628750e+03,
                5.701640730e+00]  )
               ),
        )

species(name = "H2O",
    atoms = "H:2 O:1", 
    thermo = (
       NASA(   [300.0, 1000.0], [3.386842000e+00, 3.474982000e-03,
                -6.354696000e-06, 6.968581000e-09,
                -2.506588000e-12,
                -3.020811000e+04, 2.590233000e+00]  ),
       NASA(   [1000.0, 5000.0], [2.672146000e+00, 3.056293000e-03,
                -8.730260000e-07, 1.200996000e-10,
                -6.391618000e-15,
                -2.989921000e+04, 6.862817000e+00]  )
               ),
        )

species(name = "O2",
    atoms = "O:2", 
    thermo = (
       NASA(   [300.0, 1000.0], [3.212936000e+00, 1.127486000e-03,
                -5.756150000e-07, 1.313877000e-09,
                -8.768554000e-13,
                -1.005249000e+03, 6.034738000e+00]  ),
       NASA(   [1000.0, 5000.0], [3.697578000e+00, 6.135197000e-04,
                -1.258842000e-07, 1.775281000e-11,
                -1.136435000e-15,
                -1.233930000e+03, 3.189166000e+00]  )
               ),
        )

species(name = "HO2",
    atoms = "H:1 O:2", 
    thermo = (
       NASA(   [200.0, 1000.0], [4.301798010e+00, -4.749120510e-03,
                2.115828910e-05, -2.427638940e-08,
                9.292251240e-12, 2.948080400e+02,
                3.716662450e+00]  ),
       NASA(   [1000.0, 3500.0], [4.017210900e+00, 2.239820130e-03,
                -6.336581500e-07, 1.142463700e-10,
                -1.079085350e-14, 1.118567130e+02,
                3.785102150e+00]  )
               ),
        )

species(name = "H2O2",
    atoms = "H:2 O:2", 
    thermo = (
       NASA(   [300.0, 1000.0], [3.388754000e+00, 6.569226000e-03,
                -1.485013000e-07,
                -4.625806000e-09, 2.471515000e-12,
                -1.766315000e+04, 6.785363000e+00]  ),
       NASA(   [1000.0, 5000.0], [4.573167000e+00, 4.336136000e-03,
                -1.474689000e-06, 2.348904000e-10,
                -1.431654000e-14,
                -1.800696000e+04, 5.011370000e-01]  )
               ),
        )

species(name = "N2",
    atoms = "N:2", 
    thermo = (
       NASA(   [300.0, 1000.0], [3.298677000e+00, 1.408240000e-03,
                -3.963222000e-06, 5.641515000e-09,
                -2.444855000e-12,
                -1.020900000e+03, 3.950372000e+00]  ),
       NASA(   [1000.0, 5000.0], [2.926640000e+00, 1.487977000e-03,
                -5.684761000e-07, 1.009704000e-10,
                -6.753351000e-15,
                -9.227977000e+02, 5.980528000e+00]  )
               ),
        )

species(name = "AR",
    atoms = "Ar:1", 
    thermo = (
       NASA(   [300.0, 1000.0], [2.500000000e+00, 0.000000000e+00,
                0.000000000e+00, 0.000000000e+00,
                0.000000000e+00, -7.453750000e+02,
                4.366001000e+00]  ),
       NASA(   [1000.0, 5000.0], [2.500000000e+00, 0.000000000e+00,
                0.000000000e+00, 0.000000000e+00,
                0.000000000e+00, -7.453750000e+02,
                4.366001000e+00]  )
               ),
        )

species(name = "HE",
    atoms = "He:1", 
    thermo = (
       NASA(   [300.0, 1000.0], [2.500000000e+00, 0.000000000e+00,
                0.000000000e+00, 0.000000000e+00,
                0.000000000e+00, -7.453750000e+02,
                9.153488000e-01]  ),
       NASA(   [1000.0, 5000.0], [2.500000000e+00, 0.000000000e+00,
                0.000000000e+00, 0.000000000e+00,
                0.000000000e+00, -7.453750000e+02,
                9.153489000e-01]  )
               ),
        )

species(name = "CO",
    atoms = "C:1 O:1", 
    thermo = (
       NASA(   [300.0, 1000.0], [3.262452000e+00, 1.511941000e-03,
                -3.881755000e-06, 5.581944000e-09,
                -2.474951000e-12,
                -1.431054000e+04, 4.848897000e+00]  ),
       NASA(   [1000.0, 5000.0], [3.025078000e+00, 1.442689000e-03,
                -5.630828000e-07, 1.018581000e-10,
                -6.910952000e-15,
                -1.426835000e+04, 6.108218000e+00]  )
               ),
        )

species(name = "CO2",
    atoms = "C:1 O:2", 
    thermo = (
       NASA(   [300.0, 1000.0], [2.275725000e+00, 9.922072000e-03,
                -1.040911000e-05, 6.866687000e-09,
                -2.117280000e-12,
                -4.837314000e+04, 1.018849000e+01]  ),
       NASA(   [1000.0, 5000.0], [4.453623000e+00, 3.140169000e-03,
                -1.278411000e-06, 2.393997000e-10,
                -1.669033000e-14,
                -4.896696000e+04,
                -9.553959000e-01]  )
               ),
        )

#---------------------------------------------------------------------------
#  Reaction Data
#---------------------------------------------------------------------------

#  Reaction 1
falloff_reaction( "2 OH (+M) <=> H2O2 (+M)",
        kf = [4.28002E+12, 0.18782398659931457, 1503.0000083788875],
        kf0   = [4.83002E+25, -3.2281760134006854, 2713.0000083788873],
        efficiencies = "CO2:3.0  H2O:10.0  HE:0.4  N2:2.0",
        falloff = Troe(A = 0.55, T3 = 1e-30, T1 = 1.0000000000000002e+30, T2 = 1e+30)       )

#  Reaction 2
reaction( "H + HO2 <=> H2 + O2", [1.17094E+07, 1.941, -644.7])

#  Reaction 3
reaction( "H + HO2 <=> 2 OH", [6.66036E+12, 0.29469999999999996, -126.20000000000002])

#  Reaction 4
reaction( "H + O2 <=> O + OH", [1.04510E+14, 3.668279784421842e-17, 15286.0])

#  Reaction 5
reaction( "H2 + O <=> H + OH", [3.84730E+12, -3.989739523658067e-16, 7948.0],
        options = 'duplicate')

#  Reaction 6
reaction( "H2 + O <=> H + OH", [8.97880E+14, 1.288949918671181e-16, 19170.0],
        options = 'duplicate')

#  Reaction 7
reaction( "H2 + OH <=> H + H2O", [2.16126E+08, 1.5099999999999998, 3430.0])

#  Reaction 8
three_body_reaction( "H2 + M <=> 2 H + M",  [4.57737E+19, -1.4, 104380.0],
       efficiencies = "AR:0.0  CO:1.9  CO2:3.8  H2:2.5  H2O:12.0  HE:0.0")

#  Reaction 9
reaction( "AR + H2 <=> AR + 2 H", [5.84038E+18, -1.1, 104380.0])

#  Reaction 10
reaction( "H2 + HE <=> 2 H + HE", [5.84000E+18, -1.1, 104380.0])

#  Reaction 11
three_body_reaction( "2 O + M <=> O2 + M",  [6.16500E+15, -0.5, 3.749903804171739e-18],
       efficiencies = "AR:0.0  CO:1.9  CO2:3.8  H2:2.5  H2O:12.0  HE:0.0")

#  Reaction 12
reaction( "AR + 2 O <=> AR + O2", [1.88600E+13, -1.0509020195273274e-18, -1788.0])

#  Reaction 13
reaction( "HE + 2 O <=> HE + O2", [1.88600E+13, -1.3299698469085566e-18, -1788.0])

#  Reaction 14
three_body_reaction( "H + O + M <=> OH + M",  [4.71417E+18, -1.0, -7.368255470492654e-18],
       efficiencies = "AR:0.75  CO:1.9  CO2:3.8  H2:2.5  H2O:12.0  HE:0.75")

#  Reaction 15
three_body_reaction( "H2O + M <=> H + OH + M",  [6.06434E+27, -3.322, 120790.0],
       efficiencies = "CO:1.9  CO2:3.8  H2:3.0  H2O:0.0  HE:1.1  N2:2.0  O2:1.5")

#  Reaction 16
reaction( "2 H2O <=> H + H2O + OH", [1.00600E+26, -2.44, 120180.0])

#  Reaction 17
falloff_reaction( "H + O2 (+M) <=> HO2 (+M)",
        kf = [4.68542E+12, 0.43999999999999984, 3.0663763831940996e-19],
        kf0   = [9.10924E+19, -1.5000000000000002, 492.2],
        efficiencies = "CO:2.7  CO2:5.4  H2:3.0  H2O:21.0  HE:1.2  N2:1.5  O2:1.1",
        falloff = Troe(A = 0.5, T3 = 1e-30, T1 = 1.0000000000000002e+30)       )

#  Reaction 18
reaction( "HO2 + O <=> O2 + OH", [2.85183E+10, 0.9999999999999999, -723.93])

#  Reaction 19
reaction( "H + H2O2 <=> H2O + OH", [2.41000E+13, 8.405758859519578e-19, 3970.0])

#  Reaction 20
reaction( "H + H2O2 <=> H2 + HO2", [4.82043E+13, -1.1166426600265675e-18, 7950.0])

#  Reaction 21
reaction( "H2O2 + O <=> HO2 + OH", [9.55000E+06, 2.0, 3970.0])

#  Reaction 22
chebyshev_reaction('H2O2 + OH <=> H2O + HO2',
                   Tmin=200.0, Tmax=2400.0,
                   Pmin=(0.1, 'atm'), Pmax=(10.0, 'atm'),
                   coeffs=[[12.332740060130996, 0.0],
                           [0.13014978616106612, 0.0],
                           [0.44484941836493347, 0.0],
                           [0.20807786565819228, 0.0],
                           [0.06566202861245657, 0.0],
                           [0.024209919995638193, 0.0],
                           [0.00918419358418251, 0.0],
                           [0.0035493984913753315, 0.0],
                           [0.0014077651317992163, 0.0],
                           [0.0005716179072530058, 0.0],
                           [0.00025531558664484885, 0.0],
                           [0.00011256497752782412, 0.0],
                           [7.114571134259541e-05, 0.0],
                           [2.223761958049498e-05, 0.0],
                           [4.438728512928416e-05, 0.0]])

#  Reaction 23
chebyshev_reaction('2 HO2 <=> H2O2 + O2',
                   Tmin=200.0, Tmax=2400.0,
                   Pmin=(0.1, 'atm'), Pmax=(10.0, 'atm'),
                   coeffs=[[11.800034655226158, 0.0],
                           [-0.15197468280094462, 0.0],
                           [0.3504721861950317, 0.0],
                           [0.20471108528487775, 0.0],
                           [0.0800867634736705, 0.0],
                           [0.0328609030848307, 0.0],
                           [0.012105010804900057, 0.0],
                           [0.003415209701375542, 0.0],
                           [-8.79140570648329e-05, 0.0],
                           [-0.0010521345520051741, 0.0],
                           [-0.0013285506382345149, 0.0],
                           [-0.0009464631164897379, 0.0],
                           [-0.0009228679437177981, 0.0],
                           [-0.0003191423607159717, 0.0],
                           [-0.0007240543897154741, 0.0]])

#  Reaction 24
chebyshev_reaction('HO2 + OH <=> H2O + O2',
                   Tmin=200.0, Tmax=2400.0,
                   Pmin=(0.1, 'atm'), Pmax=(10.0, 'atm'),
                   coeffs=[[13.680645211955593, 0.0],
                           [-0.4066058297216661, 0.0],
                           [0.013332405847318103, 0.0],
                           [0.06136462865442471, 0.0],
                           [0.043864461850131, 0.0],
                           [0.02433070387884884, 0.0],
                           [0.01174546866174002, 0.0],
                           [0.004968886766172934, 0.0],
                           [0.001554312372420706, 0.0],
                           [0.0001724350962929936, 0.0],
                           [-0.0004605647873776734, 0.0],
                           [-0.0004342549641125022, 0.0],
                           [-0.0005497748193773919, 0.0],
                           [-0.00018221406492909938, 0.0],
                           [-0.0005049387666005125, 0.0]])

#  Reaction 25
chebyshev_reaction('2 OH <=> H2O + O',
                   Tmin=200.0, Tmax=2400.0,
                   Pmin=(0.1, 'atm'), Pmax=(10.0, 'atm'),
                   coeffs=[[12.185256317012108, 0.0],
                           [0.06580991841705286, 0.0],
                           [0.28605833253703145, 0.0],
                           [0.14867353192464555, 0.0],
                           [0.061813236973826756, 0.0],
                           [0.02759873154359665, 0.0],
                           [0.01214332588439007, 0.0],
                           [0.005115812597465356, 0.0],
                           [0.0019590352669028132, 0.0],
                           [0.0006081981347443304, 0.0],
                           [5.6715265063184904e-05, 0.0],
                           [-0.00011257383054651487, 0.0],
                           [-0.00016390848065592429, 0.0],
                           [-0.00012183725594819452, 0.0],
                           [-0.0001198696109532217, 0.0],
                           [-4.219138858236491e-05, 0.0],
                           [-9.51515342933711e-05, 0.0]])

