#---------------------------------------------------------------------------
#  CTI File converted from Solution Object
#---------------------------------------------------------------------------

units(length = "cm", time = "s", quantity = "mol", act_energy = "cal/mol")

ideal_gas(name = "gas", 
     elements = "O H C N Ar He Cl I", 
     species =""" AR N2 H O OH HO2 H2 H2O H2O2 O2 C CH CH2 CH2* CH3 
                 CH4 HCO CH2O CH3O CH2OH CH3OH CO CO2 C2O C2H C2H2 H2CC C2H3 C2H4 
                 C2H5 C2H6 HCCO HCCOH CH2CO CH3CO CH2CHO CH2OCH CH3CHO 
                 CH2OCH2 C3H3 pC3H4 aC3H4 cC3H4 aC3H5 CH3CCH2 CH3CHCH 
                 C3H6 nC3H7 iC3H7 C3H8 CH2CHCO C2H3CHO CH3CHOCH2 
                 CH3CH2CHO CH3COCH3 C4H2 nC4H3 iC4H3 C4H4 nC4H5 iC4H5 
                 C4H5-2 c-C4H5 C4H6 C4H612 C4H6-2 C4H7 iC4H7 C4H81 C4H82 
                 iC4H8 pC4H9 sC4H9 iC4H9 tC4H9 C4H10 iC4H10 H2C4O 
                 C4H4O CH2CHCHCHO CH3CHCHCO C2H3CHOCH2 C4H6O23 
                 CH3CHCHCHO C4H6O25 C5H4O C5H5O(1,3) C5H5O(2,4) C5H4OH C5H5OH 
                 C5H5 C5H6 lC5H7 C6H2 C6H3 l-C6H4 o-C6H4 C6H5 C6H6 
                 C6H5CH2 C6H5CH3 C6H5C2H C6H5O C6H5OH C6H4O2 C6H5CO 
                 C6H5CHO C6H5CH2OH OC6H4CH3 HOC6H4CH3 C6H4CH3 OX O2X O3 
                 ClOO Cl2O2 Cl Cl2 HOCl OH* CH* OCCO(401) HCl ClO 
                 HOOOOH C2H6N2 I CH3I HI I2 HE C4H10O2 C4H9O C3H6O3 hv 
                 OCHCHO HOCO HOCH(OOH)CHO HOCH(OO)CHO OCHCO HOCHO 
                 OCHO C2H5I CH3ONO NO NO2 HNO N2O HNO3 cis-HCOH 
                 trans-HCOH HONO2 HONO NO3 HNO2 HCO-exc HCO-exc2 
                 CH4plusO1Dabs """, 
     reactions = "all", 
     initial_state = state(temperature = 300.0, pressure= 101325.0)   )       

#---------------------------------------------------------------------------
#  Species data
#---------------------------------------------------------------------------

species(name = "AR",
    atoms = "Ar:1", 
    thermo = (
       NASA(   [300.0, 1000.0], [2.500000000e+00, 0.000000000e+00,
                0.000000000e+00, 0.000000000e+00,
                0.000000000e+00, -7.453750000e+02,
                4.366000000e+00]  ),
       NASA(   [1000.0, 5000.0], [2.500000000e+00, 0.000000000e+00,
                0.000000000e+00, 0.000000000e+00,
                0.000000000e+00, -7.453750000e+02,
                4.366000000e+00]  )
               ),
    transport = gas_transport(
                   geom = "atom",
                   diam = 3.3300000000000005, 
                   well_depth = 136.5, 
                   polar = 0.0, 
                   rot_relax = 0.0) 
        )

species(name = "N2",
    atoms = "N:2", 
    thermo = (
       NASA(   [300.0, 1000.0], [3.298677000e+00, 1.408240400e-03,
                -3.963222000e-06, 5.641515000e-09,
                -2.444854000e-12,
                -1.020899900e+03, 3.950372000e+00]  ),
       NASA(   [1000.0, 5000.0], [2.926640000e+00, 1.487976800e-03,
                -5.684760000e-07, 1.009703800e-10,
                -6.753351000e-15,
                -9.227977000e+02, 5.980528000e+00]  )
               ),
    transport = gas_transport(
                   geom = "linear",
                   diam = 3.621, 
                   well_depth = 97.53, 
                   polar = 1.76, 
                   rot_relax = 4.0) 
        )

species(name = "H",
    atoms = "H:1", 
    thermo = (
       NASA(   [200.0, 1000.0], [2.500000000e+00, 7.053328190e-13,
                -1.995919640e-15, 2.300816320e-18,
                -9.277323320e-22, 2.547365990e+04,
                -4.466828530e-01]  ),
       NASA(   [1000.0, 3500.0], [2.500000010e+00, -2.308429730e-11,
                1.615619480e-14, -4.735152350e-18,
                4.981973570e-22, 2.547365990e+04,
                -4.466829140e-01]  )
               ),
    transport = gas_transport(
                   geom = "atom",
                   diam = 2.05, 
                   well_depth = 145.0, 
                   polar = 0.0, 
                   rot_relax = 0.0) 
        )

species(name = "O",
    atoms = "O:1", 
    thermo = (
       NASA(   [200.0, 1000.0], [3.168267100e+00, -3.279318840e-03,
                6.643063960e-06, -6.128066240e-09,
                2.112659710e-12, 2.912225920e+04,
                2.051933460e+00]  ),
       NASA(   [1000.0, 3500.0], [2.569420780e+00, -8.597411370e-05,
                4.194845890e-08, -1.001777990e-11,
                1.228336910e-15, 2.921757910e+04,
                4.784338640e+00]  )
               ),
    transport = gas_transport(
                   geom = "atom",
                   diam = 2.7500000000000004, 
                   well_depth = 80.0, 
                   polar = 0.0, 
                   rot_relax = 0.0) 
        )

species(name = "OH",
    atoms = "H:1 O:1", 
    thermo = (
       NASA(   [200.0, 1000.0], [4.125305610e+00, -3.225449390e-03,
                6.527646910e-06, -5.798536430e-09,
                2.062373790e-12, 3.381538120e+03,
                -6.904329600e-01]  ),
       NASA(   [1000.0, 6000.0], [2.864728860e+00, 1.056504480e-03,
                -2.590827580e-07, 3.052186740e-11,
                -1.331958760e-15, 3.718857740e+03,
                5.701640730e+00]  )
               ),
    transport = gas_transport(
                   geom = "linear",
                   diam = 2.7500000000000004, 
                   well_depth = 80.0, 
                   polar = 0.0, 
                   rot_relax = 0.0) 
        )

species(name = "HO2",
    atoms = "H:1 O:2", 
    thermo = (
       NASA(   [200.0, 1000.0], [4.301798010e+00, -4.749120510e-03,
                2.115828910e-05, -2.427638940e-08,
                9.292251240e-12, 2.948080400e+02,
                3.716662450e+00]  ),
       NASA(   [1000.0, 3500.0], [4.017210900e+00, 2.239820130e-03,
                -6.336581500e-07, 1.142463700e-10,
                -1.079085350e-14, 1.118567130e+02,
                3.785102150e+00]  )
               ),
    transport = gas_transport(
                   geom = "nonlinear",
                   diam = 3.458, 
                   well_depth = 107.4, 
                   polar = 0.0, 
                   rot_relax = 1.0) 
        )

species(name = "H2",
    atoms = "H:2", 
    thermo = (
       NASA(   [200.0, 1000.0], [2.344331120e+00, 7.980520750e-03,
                -1.947815100e-05, 2.015720940e-08,
                -7.376117610e-12,
                -9.179351730e+02, 6.830102380e-01]  ),
       NASA(   [1000.0, 3500.0], [3.337279200e+00, -4.940247310e-05,
                4.994567780e-07, -1.795663940e-10,
                2.002553760e-14, -9.501589220e+02,
                -3.205023310e+00]  )
               ),
    transport = gas_transport(
                   geom = "linear",
                   diam = 2.9200000000000004, 
                   well_depth = 38.0, 
                   polar = 0.7900000000000001, 
                   rot_relax = 280.0) 
        )

species(name = "H2O",
    atoms = "H:2 O:1", 
    thermo = (
       NASA(   [200.0, 1000.0], [4.198640560e+00, -2.036434100e-03,
                6.520402110e-06, -5.487970620e-09,
                1.771978170e-12, -3.029372670e+04,
                -8.490322080e-01]  ),
       NASA(   [1000.0, 3500.0], [3.033992490e+00, 2.176918040e-03,
                -1.640725180e-07,
                -9.704198700e-11, 1.682009920e-14,
                -3.000429710e+04, 4.966770100e+00]  )
               ),
    transport = gas_transport(
                   geom = "nonlinear",
                   diam = 2.6050000000000004, 
                   well_depth = 572.4, 
                   polar = 0.0, 
                   rot_relax = 4.0, 
                   dipole= 1.8440005262719967) 
        )

species(name = "H2O2",
    atoms = "H:2 O:2", 
    thermo = (
       NASA(   [200.0, 1000.0], [4.276112690e+00, -5.428224170e-04,
                1.673357010e-05, -2.157708130e-08,
                8.624543630e-12, -1.770258210e+04,
                3.435050740e+00]  ),
       NASA(   [1000.0, 3500.0], [4.165002850e+00, 4.908316940e-03,
                -1.901392250e-06, 3.711859860e-10,
                -2.879083050e-14,
                -1.786178770e+04, 2.916156620e+00]  )
               ),
    transport = gas_transport(
                   geom = "nonlinear",
                   diam = 3.458, 
                   well_depth = 107.4, 
                   polar = 0.0, 
                   rot_relax = 3.8) 
        )

species(name = "O2",
    atoms = "O:2", 
    thermo = (
       NASA(   [200.0, 1000.0], [3.782456360e+00, -2.996734160e-03,
                9.847302010e-06, -9.681295090e-09,
                3.243728370e-12, -1.063943560e+03,
                3.657675730e+00]  ),
       NASA(   [1000.0, 3500.0], [3.282537840e+00, 1.483087540e-03,
                -7.579666690e-07, 2.094705550e-10,
                -2.167177940e-14,
                -1.088457720e+03, 5.453231290e+00]  )
               ),
    transport = gas_transport(
                   geom = "linear",
                   diam = 3.458, 
                   well_depth = 107.4, 
                   polar = 1.6, 
                   rot_relax = 3.8) 
        )

species(name = "C",
    atoms = "C:1", 
    thermo = (
       NASA(   [200.0, 1000.0], [2.554239550e+00, -3.215377240e-04,
                7.337922450e-07, -7.322348890e-10,
                2.665214460e-13, 8.544388320e+04,
                4.531308480e+00]  ),
       NASA(   [1000.0, 3500.0], [2.492668880e+00, 4.798892840e-05,
                -7.243350200e-08, 3.742910290e-11,
                -4.872778930e-15, 8.545129530e+04,
                4.801503730e+00]  )
               ),
    transport = gas_transport(
                   geom = "atom",
                   diam = 3.2980000000000005, 
                   well_depth = 71.4, 
                   polar = 0.0, 
                   rot_relax = 0.0) 
        )

species(name = "CH",
    atoms = "C:1 H:1", 
    thermo = (
       NASA(   [200.0, 1000.0], [3.489816650e+00, 3.238355410e-04,
                -1.688990650e-06, 3.162173270e-09,
                -1.406090670e-12, 7.079729340e+04,
                2.084011080e+00]  ),
       NASA(   [1000.0, 3500.0], [2.878464730e+00, 9.709136810e-04,
                1.444456550e-07, -1.306878490e-10,
                1.760793830e-14, 7.101243640e+04,
                5.484979990e+00]  )
               ),
    transport = gas_transport(
                   geom = "linear",
                   diam = 2.7500000000000004, 
                   well_depth = 80.0, 
                   polar = 0.0, 
                   rot_relax = 0.0) 
        )

species(name = "CH2",
    atoms = "C:1 H:2", 
    thermo = (
       NASA(   [200.0, 1000.0], [3.762678670e+00, 9.688721430e-04,
                2.794898410e-06, -3.850911530e-09,
                1.687417190e-12, 4.600404010e+04,
                1.562531850e+00]  ),
       NASA(   [1000.0, 3500.0], [2.874101130e+00, 3.656392920e-03,
                -1.408945970e-06, 2.601795490e-10,
                -1.877275670e-14, 4.626360400e+04,
                6.171193240e+00]  )
               ),
    transport = gas_transport(
                   geom = "linear",
                   diam = 3.8, 
                   well_depth = 144.0, 
                   polar = 0.0, 
                   rot_relax = 0.0) 
        )

species(name = "CH2*",
    atoms = "C:1 H:2", 
    thermo = (
       NASA(   [200.0, 1000.0], [4.198604110e+00, -2.366614190e-03,
                8.232962200e-06, -6.688159810e-09,
                1.943147370e-12, 5.049681630e+04,
                -7.691189670e-01]  ),
       NASA(   [1000.0, 3500.0], [2.292038420e+00, 4.655886370e-03,
                -2.011919470e-06, 4.179060000e-10,
                -3.397163650e-14, 5.092599970e+04,
                8.626501690e+00]  )
               ),
    transport = gas_transport(
                   geom = "linear",
                   diam = 3.8, 
                   well_depth = 144.0, 
                   polar = 0.0, 
                   rot_relax = 0.0) 
        )

species(name = "CH3",
    atoms = "C:1 H:3", 
    thermo = (
       NASA(   [200.0, 1000.0], [3.673590400e+00, 2.010951750e-03,
                5.730218560e-06, -6.871174250e-09,
                2.543857340e-12, 1.644499880e+04,
                1.604564330e+00]  ),
       NASA(   [1000.0, 3500.0], [2.285717720e+00, 7.239900370e-03,
                -2.987143480e-06, 5.956846440e-10,
                -4.671543940e-14, 1.677558430e+04,
                8.480071790e+00]  )
               ),
    transport = gas_transport(
                   geom = "linear",
                   diam = 3.8, 
                   well_depth = 144.0, 
                   polar = 0.0, 
                   rot_relax = 0.0) 
        )

species(name = "CH4",
    atoms = "C:1 H:4", 
    thermo = (
       NASA(   [200.0, 1000.0], [5.149876130e+00, -1.367097880e-02,
                4.918005990e-05, -4.847430260e-08,
                1.666939560e-11, -1.024664760e+04,
                -4.641303760e+00]  ),
       NASA(   [1000.0, 3500.0], [7.485149500e-02, 1.339094670e-02,
                -5.732858090e-06, 1.222925350e-09,
                -1.018152300e-13,
                -9.468344590e+03, 1.843731800e+01]  )
               ),
    transport = gas_transport(
                   geom = "nonlinear",
                   diam = 3.7460000000000004, 
                   well_depth = 141.4, 
                   polar = 2.6, 
                   rot_relax = 13.0) 
        )

species(name = "HCO",
    atoms = "C:1 H:1 O:1", 
    thermo = (
       NASA(   [200.0, 1000.0], [4.221185840e+00, -3.243925320e-03,
                1.377994460e-05, -1.331440930e-08,
                4.337688650e-12, 3.839564960e+03,
                3.394372430e+00]  ),
       NASA(   [1000.0, 3500.0], [2.772174380e+00, 4.956955260e-03,
                -2.484456130e-06, 5.891617780e-10,
                -5.335087110e-14, 4.011918150e+03,
                9.798344920e+00]  )
               ),
    transport = gas_transport(
                   geom = "nonlinear",
                   diam = 3.59, 
                   well_depth = 498.0, 
                   polar = 0.0, 
                   rot_relax = 0.0) 
        )

species(name = "CH2O",
    atoms = "C:1 H:2 O:1", 
    thermo = (
       NASA(   [200.0, 1000.0], [4.793723150e+00, -9.908333690e-03,
                3.732200080e-05, -3.792852610e-08,
                1.317726520e-11, -1.430895670e+04,
                6.028129000e-01]  ),
       NASA(   [1000.0, 3500.0], [1.760690080e+00, 9.200000820e-03,
                -4.422588130e-06, 1.006412120e-09,
                -8.838556400e-14,
                -1.399583230e+04, 1.365632300e+01]  )
               ),
    transport = gas_transport(
                   geom = "nonlinear",
                   diam = 3.59, 
                   well_depth = 498.0, 
                   polar = 0.0, 
                   rot_relax = 2.0) 
        )

species(name = "CH3O",
    atoms = "C:1 H:3 O:1", 
    thermo = (
       NASA(   [200.0, 1000.0], [3.711805020e+00, -2.804633060e-03,
                3.765509710e-05, -4.730720890e-08,
                1.865884200e-11, 1.295697600e+03,
                6.572408640e+00]  ),
       NASA(   [1000.0, 6000.0], [4.757792380e+00, 7.441424740e-03,
                -2.697051760e-06, 4.380905040e-10,
                -2.635370980e-14, 3.781119400e+02,
                -1.966800280e+00]  )
               ),
    transport = gas_transport(
                   geom = "nonlinear",
                   diam = 3.6900000000000004, 
                   well_depth = 417.0, 
                   polar = 0.0, 
                   rot_relax = 2.0, 
                   dipole= 1.7000004851748343) 
        )

species(name = "CH2OH",
    atoms = "C:1 H:3 O:1", 
    thermo = (
       NASA(   [200.0, 1000.0], [4.478343670e+00, -1.350703100e-03,
                2.784849800e-05, -3.648690600e-08,
                1.479074500e-11, -3.500728900e+03,
                3.309135000e+00]  ),
       NASA(   [1000.0, 6000.0], [5.093143700e+00, 5.947612600e-03,
                -2.064974600e-06, 3.230081730e-10,
                -1.881259020e-14,
                -4.034096400e+03,
                -1.846914930e+00]  )
               ),
    transport = gas_transport(
                   geom = "nonlinear",
                   diam = 3.6900000000000004, 
                   well_depth = 417.0, 
                   polar = 0.0, 
                   rot_relax = 2.0, 
                   dipole= 1.7000004851748343) 
        )

species(name = "CH3OH",
    atoms = "C:1 H:4 O:1", 
    thermo = (
       NASA(   [200.0, 1000.0], [5.715395820e+00, -1.523091290e-02,
                6.524411550e-05, -7.108068890e-08,
                2.613526980e-11, -2.564276560e+04,
                -1.504098230e+00]  ),
       NASA(   [1000.0, 3500.0], [1.789707910e+00, 1.409382920e-02,
                -6.365008350e-06, 1.381710850e-09,
                -1.170602200e-13,
                -2.537487470e+04, 1.450236230e+01]  )
               ),
    transport = gas_transport(
                   geom = "nonlinear",
                   diam = 3.6260000000000003, 
                   well_depth = 481.8, 
                   polar = 0.0, 
                   rot_relax = 1.0) 
        )

species(name = "CO",
    atoms = "C:1 O:1", 
    thermo = (
       NASA(   [200.0, 1000.0], [3.579533470e+00, -6.103536800e-04,
                1.016814330e-06, 9.070058840e-10,
                -9.044244990e-13,
                -1.434408600e+04, 3.508409280e+00]  ),
       NASA(   [1000.0, 3500.0], [2.715185610e+00, 2.062527430e-03,
                -9.988257710e-07, 2.300530080e-10,
                -2.036477160e-14,
                -1.415187240e+04, 7.818687720e+00]  )
               ),
    transport = gas_transport(
                   geom = "linear",
                   diam = 3.65, 
                   well_depth = 98.1, 
                   polar = 1.9500000000000002, 
                   rot_relax = 1.8) 
        )

species(name = "CO2",
    atoms = "C:1 O:2", 
    thermo = (
       NASA(   [200.0, 1000.0], [2.356773520e+00, 8.984596770e-03,
                -7.123562690e-06, 2.459190220e-09,
                -1.436995480e-13,
                -4.837196970e+04, 9.901052220e+00]  ),
       NASA(   [1000.0, 3500.0], [3.857460290e+00, 4.414370260e-03,
                -2.214814040e-06, 5.234901880e-10,
                -4.720841640e-14,
                -4.875916600e+04, 2.271638060e+00]  )
               ),
    transport = gas_transport(
                   geom = "linear",
                   diam = 3.763, 
                   well_depth = 244.0, 
                   polar = 2.6500000000000004, 
                   rot_relax = 2.1) 
        )

species(name = "C2O",
    atoms = "C:2 O:1", 
    thermo = (
       NASA(   [200.0, 1000.0], [2.864861000e+00, 1.199021600e-02,
                -1.836244800e-05, 1.576973900e-08,
                -5.389745200e-12, 3.374993200e+04,
                8.886777200e+00]  ),
       NASA(   [1000.0, 6000.0], [5.151272200e+00, 2.372672200e-03,
                -7.613597100e-07, 1.170641500e-10,
                -7.025780400e-15, 3.324188800e+04,
                -2.218313500e+00]  )
               ),
    transport = gas_transport(
                   geom = "linear",
                   diam = 3.8280000000000003, 
                   well_depth = 232.4, 
                   polar = 0.0, 
                   rot_relax = 1.0) 
        )

species(name = "C2H",
    atoms = "C:2 H:1", 
    thermo = (
       NASA(   [200.0, 1000.0], [2.889657330e+00, 1.340996110e-02,
                -2.847695010e-05, 2.947910450e-08,
                -1.093315110e-11, 6.683939320e+04,
                6.222964380e+00]  ),
       NASA(   [1000.0, 3500.0], [3.167806520e+00, 4.752219020e-03,
                -1.837870770e-06, 3.041902520e-10,
                -1.772327700e-14, 6.712106500e+04,
                6.635894750e+00]  )
               ),
    transport = gas_transport(
                   geom = "linear",
                   diam = 4.1, 
                   well_depth = 209.0, 
                   polar = 0.0, 
                   rot_relax = 2.5) 
        )

species(name = "C2H2",
    atoms = "C:2 H:2", 
    thermo = (
       NASA(   [200.0, 1000.0], [8.086810940e-01, 2.336156290e-02,
                -3.551718150e-05, 2.801524370e-08,
                -8.500729740e-12, 2.642898070e+04,
                1.393970510e+01]  ),
       NASA(   [1000.0, 3500.0], [4.147569640e+00, 5.961666640e-03,
                -2.372948520e-06, 4.674121710e-10,
                -3.612352130e-14, 2.593599920e+04,
                -1.230281210e+00]  )
               ),
    transport = gas_transport(
                   geom = "linear",
                   diam = 4.1, 
                   well_depth = 209.0, 
                   polar = 0.0, 
                   rot_relax = 2.5) 
        )

species(name = "H2CC",
    atoms = "C:2 H:2", 
    thermo = (
       NASA(   [200.0, 1000.0], [3.281548300e+00, 6.976479100e-03,
                -2.385524400e-06,
                -1.210443200e-09, 9.818954500e-13,
                4.862179400e+04, 5.920391000e+00]  ),
       NASA(   [1000.0, 6000.0], [4.278034000e+00, 4.756280400e-03,
                -1.630100900e-06, 2.546280600e-10,
                -1.488637900e-14, 4.831668800e+04,
                6.402370100e-01]  )
               ),
    transport = gas_transport(
                   geom = "nonlinear",
                   diam = 4.1, 
                   well_depth = 209.0, 
                   polar = 0.0, 
                   rot_relax = 2.5) 
        )

species(name = "C2H3",
    atoms = "C:2 H:3", 
    thermo = (
       NASA(   [200.0, 1000.0], [3.212466450e+00, 1.514791620e-03,
                2.592094120e-05, -3.576578470e-08,
                1.471508730e-11, 3.485984680e+04,
                8.510540250e+00]  ),
       NASA(   [1000.0, 3500.0], [3.016724000e+00, 1.033022920e-02,
                -4.680823490e-06, 1.017632880e-09,
                -8.626070410e-14, 3.461287390e+04,
                7.787323780e+00]  )
               ),
    transport = gas_transport(
                   geom = "nonlinear",
                   diam = 4.1, 
                   well_depth = 209.0, 
                   polar = 0.0, 
                   rot_relax = 1.0) 
        )

species(name = "C2H4",
    atoms = "C:2 H:4", 
    thermo = (
       NASA(   [200.0, 1000.0], [3.959201480e+00, -7.570522470e-03,
                5.709902920e-05, -6.915887530e-08,
                2.698843730e-11, 5.089775930e+03,
                4.097330960e+00]  ),
       NASA(   [1000.0, 3500.0], [2.036111160e+00, 1.464541510e-02,
                -6.710779150e-06, 1.472229230e-09,
                -1.257060610e-13, 4.939886140e+03,
                1.030536930e+01]  )
               ),
    transport = gas_transport(
                   geom = "nonlinear",
                   diam = 3.971, 
                   well_depth = 280.8, 
                   polar = 0.0, 
                   rot_relax = 1.5) 
        )

species(name = "C2H5",
    atoms = "C:2 H:5", 
    thermo = (
       NASA(   [200.0, 1000.0], [4.306465680e+00, -4.186588920e-03,
                4.971428070e-05, -5.991266060e-08,
                2.305090040e-11, 1.284162650e+04,
                4.707209240e+00]  ),
       NASA(   [1000.0, 3500.0], [1.954656420e+00, 1.739727220e-02,
                -7.982066680e-06, 1.752176890e-09,
                -1.496415760e-13, 1.285752000e+04,
                1.346243430e+01]  )
               ),
    transport = gas_transport(
                   geom = "nonlinear",
                   diam = 4.302, 
                   well_depth = 252.3, 
                   polar = 0.0, 
                   rot_relax = 1.5) 
        )

species(name = "C2H6",
    atoms = "C:2 H:6", 
    thermo = (
       NASA(   [200.0, 1000.0], [4.291424920e+00, -5.501542700e-03,
                5.994382880e-05, -7.084662850e-08,
                2.686857710e-11, -1.152220550e+04,
                2.666823160e+00]  ),
       NASA(   [1000.0, 3500.0], [1.071881500e+00, 2.168526770e-02,
                -1.002560670e-05, 2.214120010e-09,
                -1.900028900e-13,
                -1.142639320e+04, 1.511561070e+01]  )
               ),
    transport = gas_transport(
                   geom = "nonlinear",
                   diam = 4.302, 
                   well_depth = 252.3, 
                   polar = 0.0, 
                   rot_relax = 1.5) 
        )

species(name = "HCCO",
    atoms = "C:2 H:1 O:1", 
    thermo = (
       NASA(   [300.0, 1000.0], [2.251721400e+00, 1.765502100e-02,
                -2.372910100e-05, 1.727575900e-08,
                -5.066481100e-12, 2.005944900e+04,
                1.249041700e+01]  ),
       NASA(   [1000.0, 4000.0], [5.628205800e+00, 4.085340100e-03,
                -1.593454700e-06, 2.862605200e-10,
                -1.940783200e-14, 1.932721500e+04,
                -3.930259500e+00]  )
               ),
    transport = gas_transport(
                   geom = "nonlinear",
                   diam = 2.5, 
                   well_depth = 150.0, 
                   polar = 0.0, 
                   rot_relax = 1.0) 
        )

species(name = "HCCOH",
    atoms = "C:2 H:2 O:1", 
    thermo = (
       NASA(   [300.0, 1000.0], [1.242373300e+00, 3.107220100e-02,
                -5.086686400e-05, 4.313713100e-08,
                -1.401459400e-11, 8.031614300e+03,
                1.387431900e+01]  ),
       NASA(   [1000.0, 5000.0], [5.923829100e+00, 6.792360000e-03,
                -2.565856400e-06, 4.498784100e-10,
                -2.994010100e-14, 7.264626000e+03,
                -7.601774200e+00]  )
               ),
    transport = gas_transport(
                   geom = "nonlinear",
                   diam = 3.97, 
                   well_depth = 436.0, 
                   polar = 0.0, 
                   rot_relax = 2.0) 
        )

species(name = "CH2CO",
    atoms = "C:2 H:2 O:1", 
    thermo = (
       NASA(   [200.0, 1000.0], [2.135836300e+00, 1.811887210e-02,
                -1.739474740e-05, 9.343975680e-09,
                -2.014576150e-12,
                -7.270000000e+03, 1.221564800e+01]  ),
       NASA(   [1000.0, 3500.0], [4.511297320e+00, 9.003597450e-03,
                -4.169396350e-06, 9.233458820e-10,
                -7.948382010e-14,
                -7.778500000e+03, 6.322472050e-01]  )
               ),
    transport = gas_transport(
                   geom = "nonlinear",
                   diam = 3.97, 
                   well_depth = 436.0, 
                   polar = 0.0, 
                   rot_relax = 2.0) 
        )

species(name = "CH3CO",
    atoms = "C:2 H:3 O:1", 
    thermo = (
       NASA(   [200.0, 1000.0], [4.163425700e+00, -2.326161000e-04,
                3.426782000e-05, -4.410522700e-08,
                1.727561200e-11, -2.657452900e+03,
                7.346828000e+00]  ),
       NASA(   [1000.0, 6000.0], [5.944773100e+00, 7.866720500e-03,
                -2.886588200e-06, 4.727087500e-10,
                -2.859986100e-14,
                -3.787307500e+03,
                -5.013675100e+00]  )
               ),
    transport = gas_transport(
                   geom = "nonlinear",
                   diam = 3.97, 
                   well_depth = 436.0, 
                   polar = 0.0, 
                   rot_relax = 2.0) 
        )

species(name = "CH2CHO",
    atoms = "C:2 H:3 O:1", 
    thermo = (
       NASA(   [300.0, 1000.0], [3.409062400e+00, 1.073857400e-02,
                1.891492500e-06, -7.158583100e-09,
                2.867385100e-12, 6.200000000e+01,
                9.571453500e+00]  ),
       NASA(   [1000.0, 5000.0], [5.975669900e+00, 8.130591400e-03,
                -2.743624500e-06, 4.070304100e-10,
                -2.176017100e-14,
                -9.695000000e+02,
                -5.032087900e+00]  )
               ),
    transport = gas_transport(
                   geom = "nonlinear",
                   diam = 3.97, 
                   well_depth = 436.0, 
                   polar = 0.0, 
                   rot_relax = 2.0) 
        )

species(name = "CH2OCH",
    atoms = "C:2 H:3 O:1", 
    thermo = (
       NASA(   [298.15, 500.0], [-3.839608400e-01, 2.387903800e-02,
                -1.246758700e-05,
                -1.768641100e-09, 2.814243800e-12,
                1.883620300e+04, 2.574174500e+01]  ),
       NASA(   [500.0, 3000.0], [4.499405400e+00, 1.155262500e-02,
                -4.814412900e-06, 8.923491900e-10,
                -5.687058500e-14, 1.747396300e+04,
                3.392551500e-01]  )
               ),
    transport = gas_transport(
                   geom = "linear",
                   diam = 4.76, 
                   well_depth = 252.00000000000003, 
                   polar = 0.0, 
                   rot_relax = 1.0) 
        )

species(name = "CH3CHO",
    atoms = "C:2 H:4 O:1", 
    thermo = (
       NASA(   [200.0, 1000.0], [4.729459500e+00, -3.193285800e-03,
                4.753492100e-05, -5.745861100e-08,
                2.193111200e-11, -2.157287800e+04,
                4.103015900e+00]  ),
       NASA(   [1000.0, 6000.0], [5.404110800e+00, 1.172305900e-02,
                -4.226313700e-06, 6.837245100e-10,
                -4.098486300e-14,
                -2.259312200e+04,
                -3.480791700e+00]  )
               ),
    transport = gas_transport(
                   geom = "nonlinear",
                   diam = 3.97, 
                   well_depth = 436.0, 
                   polar = 0.0, 
                   rot_relax = 2.0) 
        )

species(name = "CH2OCH2",
    atoms = "C:2 H:4 O:1", 
    thermo = (
       NASA(   [298.15, 1000.0], [3.759053200e+00, -9.441218000e-03,
                8.030972100e-05, -1.008078800e-07,
                4.003992100e-11, -7.560814300e+03,
                7.849747500e+00]  ),
       NASA(   [1000.0, 3000.0], [5.488764100e+00, 1.204619000e-02,
                -4.333693100e-06, 7.002831100e-10,
                -4.194908800e-14,
                -9.180425100e+03,